go atlas simflags="-P 40"

mesh space.mult=1.0

x.mesh loc=0.0  spac=0.001
x.mesh loc=0.5  spac=0.001

y.mesh loc=0.0 spac=0.01
y.mesh loc=0.1 spac=0.01

region num=1 material=GaN x.max=0.1
region num=2 material=GaN x.min=0.1 x.max=0.3
region num=3 material=GaN x.min=0.3

elec num=1 name=anode    x.min=0.0   x.max=0.001 y.min=0.0 y.max=0.1
elec num=2 name=cathode  x.min=0.499 x.max=0.5   y.min=0.0 y.max=0.1

doping region=1 uniform n.type conc=1.0e19
doping region=2 uniform n.type conc=1.0e16
doping region=3 uniform n.type conc=1.0e19

material material=GaN
models print hcte mos lat.temp

thermcontact num=1 elec.num=1 ext.temp=300
thermcontact num=2 elec.num=2 ext.temp=300

method newton trap autonr maxtrap=10
solve init
solve vanode=0.0   name=anode
solve vcathode=0.0 vstep=0.1 vfinal=10.0 name=cathode

output band.param band.temp qfn qfp con.band val.band
save outf=Structure.str master
tonyplot Structure.str

extract init infile="Structure.str"
#extract 2d.conc.file material="GaN" impurity="Potential" outfile="Potential.dat"
extract 2d.conc.file material="GaN" impurity="E Field X" outfile="XeField.dat"
extract 2d.conc.file material="GaN" impurity="E Field Y" outfile="YeField.dat"
extract 2d.conc.file material="GaN" impurity="Electron conc" outfile="Eleconc.dat"
extract 2d.conc.file material="GaN" impurity="Total Doping" outfile="TotalDoping.dat"

quit
